#!/sbin/sh

TMPDIR=/dev/tmp
MOUNTPATH=/dev/magisk_img

# Default permissions
umask 022

# Initial cleanup
rm -rf $TMPDIR 2>/dev/null
mkdir -p $TMPDIR

# echo before loading util_functions
ui_print() { echo "$1"; }

require_new_magisk() {
  ui_print "***********************************"
  ui_print " Please install the latest Magisk! "
  ui_print "***********************************"
  exit 1
}

imageless_magisk() {
  [ $MAGISK_VER_CODE -gt 18100 ]
  return $?
}

##########################################################################################
# Environment
##########################################################################################

OUTFD=$2
ZIPFILE=$3

mount /data 2>/dev/null

# Load utility functions
if [ -f /data/adb/magisk/util_functions.sh ]; then
  . /data/adb/magisk/util_functions.sh
  NVBASE=/data/adb
else
  require_new_magisk
fi

# Preperation for flashable zips
setup_flashable

# Mount partitions
mount_partitions

# Detect version and architecture
api_level_arch_detect

# Setup busybox and binaries
$BOOTMODE && boot_actions || recovery_actions

##########################################################################################
# Preparation
##########################################################################################

# Extract common files
unzip -oj "$ZIPFILE" module.prop install.sh uninstall.sh 'common/*' -d $TMPDIR >&2

[ ! -f $TMPDIR/install.sh ] && abort "! Unable to extract zip file!"
# Load install script
. $TMPDIR/install.sh

if imageless_magisk; then
  $BOOTMODE && MODDIRNAME=modules_update || MODDIRNAME=modules
  MODULEROOT=$NVBASE/$MODDIRNAME
else
  $BOOTMODE && IMGNAME=magisk_merge.img || IMGNAME=magisk.img
  IMG=$NVBASE/$IMGNAME
  request_zip_size_check "$ZIPFILE"
  mount_magisk_img
  MODULEROOT=$MOUNTPATH
fi

MODID=`grep_prop id $TMPDIR/module.prop`
MODPATH=$MODULEROOT/$MODID

print_modname

ui_print "******************************"
ui_print "Powered by Magisk (@topjohnwu)"
ui_print "******************************"

##########################################################################################
# Install
##########################################################################################

# Create mod paths
rm -rf $MODPATH 2>/dev/null
mkdir -p $MODPATH

on_install

# Remove placeholder
rm -f $MODPATH/system/placeholder 2>/dev/null

# Custom uninstaller
[ -f $TMPDIR/uninstall.sh ] && cp -af $TMPDIR/uninstall.sh $MODPATH/uninstall.sh

# Auto Mount
if imageless_magisk; then
  $SKIPMOUNT && touch $MODPATH/skip_mount
else
  $SKIPMOUNT || touch $MODPATH/auto_mount
fi

# prop files
$PROPFILE && cp -af $TMPDIR/system.prop $MODPATH/system.prop

# Module info
cp -af $TMPDIR/module.prop $MODPATH/module.prop
if $BOOTMODE; then
  # Update info for Magisk Manager
  if imageless_magisk; then
    mktouch $NVBASE/modules/$MODID/update
    cp -af $TMPDIR/module.prop $NVBASE/modules/$MODID/module.prop
  else
    mktouch /sbin/.magisk/img/$MODID/update
    cp -af $TMPDIR/module.prop /sbin/.magisk/img/$MODID/module.prop
  fi
fi

# post-fs-data mode scripts
$POSTFSDATA && cp -af $TMPDIR/post-fs-data.sh $MODPATH/post-fs-data.sh

# service mode scripts
$LATESTARTSERVICE && cp -af $TMPDIR/service.sh $MODPATH/service.sh

# Handle replace folders
for TARGET in $REPLACE; do
  mktouch $MODPATH$TARGET/.replace
done

ui_print "- Setting permissions"
set_permissions

##########################################################################################
# Finalizing
##########################################################################################

cd /
imageless_magisk || unmount_magisk_img
$BOOTMODE || recovery_cleanup
rm -rf $TMPDIR $MOUNTPATH

ui_print ""
ui_print ""
sleep 1
ui_print "â–ŒCUSTOM YOUR CPU FOR FOCUS YOUR PERFORMANCE"
ui_print ""
ui_print " â”â”â”â”â”â”â”â”â”â”â”â”â”â”â”â”â”â”â”â”â”â”â”â”â”â”â”â”â”â”â”â”â”â”â”â”â”â”â”â”â”â”â”â”â”â”â”â”â”â”â”â”â”â”â”"
sleep 2.5
ui_print " "
ui_print "â–Œğ™‘ğ™€ğ™ğ™ğ™„ğ™Šğ™‰ â–°  v1.1 â–Œ"
sleep 1
ui_print ""
ui_print "â–ŒGET INFO YOUR DEVICE â–Œ"
sleep 2
ui_print "â–Œğ™”ğ™¤ğ™ªğ™§ ğ˜¿ğ™šğ™«ğ™ğ™˜ğ™š ğ˜¾ğ™¤ğ™™ğ™šğ™£ğ™–ğ™¢ğ™š ğ™„ğ™¨ â–° $(getprop ro.build.product)"
ui_print "â–Œğ™”ğ™¤ğ™ªğ™§ ğ™ˆğ™¤ğ™—ğ™ğ™¡ğ™š ğ™‹ğ™ğ™¤ğ™£ğ™š ğ™„ğ™¨  â–° $(getprop ro.product.model)"
ui_print "â–Œğ™”ğ™¤ğ™ªğ™§ ğ™ˆğ™–ğ™£ğ™ªğ™›ğ™–ğ™˜ğ™©ğ™ªğ™§ğ™šğ™§ ğ™„ğ™¨ â–° $(getprop ro.product.system.manufacturer)"
ui_print "â–Œğ™”ğ™¤ğ™ªğ™§ ğ™‹ğ™§ğ™¤ğ™˜ğ™šğ™¨ğ™¨ğ™¤ğ™§ ğ™„ğ™¨ â–° $(getprop ro.product.board)"
ui_print "â–Œğ™”ğ™¤ğ™ªğ™§ ğ˜¾ğ™‹ğ™ ğ™„ğ™¨ â–° $(getprop ro.hardware)"
ui_print "â–Œğ™”ğ™¤ğ™ªğ™§ ğ˜¾ğ™‹ğ™ ğ˜¼ğ™§ğ™˜ğ™ ğ™„ğ™¨ â–° $(getprop ro.bionic.arch)"
ui_print "â–Œğ™”ğ™¤ğ™ªğ™§ ğ™†ğ™šğ™§ğ™£ğ™šğ™¡ ğ™„ğ™¨ â–° $(uname -r)"
ui_print "â–Œğ™”ğ™¤ğ™ªğ™§ ğ™ƒğ™–ğ™§ğ™™ğ™¬ğ™–ğ™§ğ™š ğ™„ğ™¨ â–° $(getprop ro.boot.hardware)"
ui_print "â–Œğ™”ğ™¤ğ™ªğ™§ ğ™ğ˜¿ğ™† ğ™„ğ™¨ â–° $API"
ui_print "â–Œğ™”ğ™¤ğ™ªğ™§ ğ™ğ™Šğ™ˆ ğ™„ğ™¨ â–° $(getprop ro.build.display.id)"
ui_print ""
ui_print " â”â”â”â”â”â”â”â”â”â”â”â”â”â”â”â”â”â”â”â”â”â”â”â”â”â”â”â”â”â”â”â”â”â”â”â”â”â”â”â”â”â”â”â”â”â”â”â”â”â”â”â”â”â”â”"
sleep 2
sleep 2
ui_print "â–Œğ˜¿ğ™Šğ™‰ğ™€!"
ui_print "THERMAL KILLER SUCCESS!"
sleep 1
ui_print " â”â”â”â”â”â”â”â”â”â”â”â”â”â”â”â”â”â”â”â”â”â”â”â”â”â”â”â”â”â”â”â”â”â”â”â”â”â”â”â”â”â”â”â”â”â”â”â”â”â”â”â”â”â”â”"
ui_print ""
sleep 1.5
ui_print "â–Œğ™ˆğ™¤ğ™™ğ™ªğ™¡ğ™š ğ™„ğ™£ğ™¨ğ™©ğ™–ğ™¡ğ™¡ğ™šğ™™ ğ™ğ™ªğ™˜ğ™˜ğ™šğ™¨ğ™¨ğ™›ğ™ªğ™¡ğ™¡ğ™®!"
sleep 1
ui_print "â–Œğ™„ğ™£ğ™¨ğ™©ğ™–ğ™¡ğ™¡ğ™–ğ™©ğ™ğ™¤ğ™£ ğ˜¿ğ™–ğ™©ğ™šâ–° $(date +"%d-%m-%Y %r" )"
sleep 1
ui_print " "
sleep 1.5
ui_print "â–Œğ™ğ™šğ™¨ğ™©ğ™–ğ™§ğ™© ğ™‹ğ™ğ™¤ğ™£ğ™š..."
sleep 1
ui_print "â–Œğ™Šğ™¥ğ™šğ™£ ğ™ğ™šğ™§ğ™¢ğ™ªğ™­ ğ˜¼ğ™¥ğ™¥ğ™¡ğ™ğ™˜ğ™–ğ™©ğ™ğ™¤ğ™£"
sleep 1
ui_print "â–Œğ˜¼ğ™£ğ™™ ğ™ğ™¨ğ™š [su -c cpulock] ğ™ğ™¤ ğ™Šğ™¥ğ™šğ™£ ğ™ğ™¥ ğ™ˆğ™šğ™£ğ™ª!"
ui_print " "
sleep 2
ui_print "â–Œğ™ğ™©ğ™–ğ™® ğ™ğ™–ğ™¨ğ™©âš¡ï¸"
ui_print " "
ui_print " "
ui_print " "
ui_print " "
ui_print ""

exit 0